Input file: ciat_ner_diseases.jsonl
Input file: ciat_ner_news.jsonl
Output file: ciat_ner_diseases-output-iob-tags-full_doc.tsv
Total number of annotation documents: 487
Total number of tokens: 236834
Longest sequence of tokens: 4761
